* test4_simple
V1 5 0 2 EXP (2 5 1 0.2 2 0.5) AC 2 45
V2 3 2 0.2 PULSE (0.2 1 1 0.1 0.4 0.5 2) AC 0.2 90
V3 7 6 2 AC 2 30
I1 4 8 1e-3 SIN (1e-3 0.5 5 1 1 30)
I2 0 6 1e-3 PWL (0 1e-3) (1.2 0.1) (1.4 1) (2 0.2) (3 0.4) AC 1e-3 420

R1 1 5 1.5
R2 1 2 1
R3 5 2 50
R4 5 6 0.1
R5 2 6 1.5
R6 2 6 0.1
R7 8 0 1000
R8 4 0 10
C1 7 0 0.1 
C2 2 0 0.2 
L1 6 2 0.1 

.OPTIONS
.TRAN 0.01 10
.OPTIONS METHOD=BE
.PRINT V(4)

.end